# avogadro generated ORCA input file 
# Basic Mode
# 
! OptTS NumFreq HF def2-TZVP

%geom

MaxIter 1000

end

* xyz -1 1
   C        1.07900       -0.55800       -0.01900
   H        1.80900        0.26700       -0.02400
   C        0.90000       -1.28100       -1.21900
   H        0.92200       -0.69000       -2.13700
   H        1.88700       -2.00600       -1.33700
   C        0.85700       -1.23300        1.28500
   H        1.66700       -1.94900        1.48500
   H        0.82300       -0.51200        2.11100
   H       -0.09200       -1.78600        1.29300
  Br       -0.72500        0.76800        0.17500
   H        0.07500       -1.99700       -1.23700
   O        2.96400       -2.78400       -1.44400
   H        2.78400       -3.10100       -2.30900
*

